<?xml version="1.0" encoding="UTF-8"?>

<!-- generated on 2026-04-22T13:55:24.129970-05:00 by Eclipse SUMO netconvert 1.26.0
<netconvertConfiguration xmlns:xsi="http://www.w3.org/2001/XMLSchema-instance" xsi:noNamespaceSchemaLocation="http://sumo.dlr.de/xsd/netconvertConfiguration.xsd">

    <input>
        <node-files value="highway_plain.nod.xml"/>
        <edge-files value="highway_plain.edg.xml"/>
    </input>

    <output>
        <output-file value="highway.net.xml"/>
    </output>

    <processing>
        <offset.disable-normalization value="true"/>
    </processing>

</netconvertConfiguration>
-->

<net version="1.20" junctionCornerDetail="5" limitTurnSpeed="5.50" xmlns:xsi="http://www.w3.org/2001/XMLSchema-instance" xsi:noNamespaceSchemaLocation="http://sumo.dlr.de/xsd/net_file.xsd">

    <location netOffset="0.00,0.00" convBoundary="0.00,4.80,1200.00,4.80" origBoundary="0.00,-40.00,1200.00,40.00" projParameter="!"/>

    <edge id="H0" from="N0" to="N1" priority="1">
        <lane id="H0_0" index="0" speed="33.33" length="1200.00" shape="0.00,-3.20 1200.00,-3.20"/>
        <lane id="H0_1" index="1" speed="33.33" length="1200.00" shape="0.00,-0.00 1200.00,-0.00"/>
        <lane id="H0_2" index="2" speed="33.33" length="1200.00" shape="0.00,3.20 1200.00,3.20"/>
    </edge>

    <junction id="N0" type="dead_end" x="0.00" y="4.80" incLanes="" intLanes="" shape="-0.00,4.80 -0.00,-4.80"/>
    <junction id="N1" type="dead_end" x="1200.00" y="4.80" incLanes="H0_0 H0_1 H0_2" intLanes="" shape="1200.00,-4.80 1200.00,4.80"/>

</net>
